Circuit: * C:\Users\atish\Desktop\ProjectLambda.asc

Ignoring BSIM parameter XL
Ignoring BSIM parameter XW
Ignoring BSIM parameter XL
Ignoring BSIM parameter XW
Direct Newton iteration for .op point succeeded.

Date: Fri Jul 31 18:35:01 2020
Total elapsed time: 0.217 seconds.

tnom = 27
temp = 27
method = modified trap
totiter = 2225
traniter = 2216
tranpoints = 1086
accept = 1077
rejected = 9
matrix size = 11
fillins = 4
solver = Normal
Matrix Compiler1: 1.06 KB object code size  0.2/0.1/[0.1]
Matrix Compiler2: 1.06 KB object code size  0.1/0.1/[0.1]

